33
Coordinates from ORCA-job freq
  N   -7.91457420652364      0.90209494923570      0.02913509465472
  C   -6.49413119285304      0.83170104906502      0.18686964318130
  C   -6.18292805320128      0.88467510263618      1.68066967035050
  O   -6.97835470024349      1.37622833535649      2.45904763453608
  C   -5.75663230178830      1.98273282724987     -0.55123534680119
  C   -6.07560934703650      3.34372425527196      0.06624523049449
  C   -5.55966710571848      4.40870599042063     -0.88607209165329
  C   -5.88157158638737      5.86322130682087     -0.22850436049388
  N   -5.47011613936823      6.83854800661391     -1.12390257886991
  H   -8.45254897740483      1.06817134075304      0.86862597762988
  C   -8.50598249753867      0.58594027662710     -1.16237193421928
  N   -4.96495912905443      0.42946853459600      2.02868441578389
  H   -4.43093213912508     -0.07569520839011      1.34022326438767
  O   -7.83552614031565      0.34696223209334     -2.14614913634736
  H   -4.50458508081790      7.14737784129863     -1.16176249125207
  C   -4.50728365817005      0.41380724974624      3.40793523250115
  H   -4.69462924268976     -0.55242614975387      3.87675736259678
  H   -3.44095300246765      0.62793708878316      3.44079775444929
  H   -5.05046065282320      1.17940152512707      3.95506862459362
  C   -10.01064205613564      0.53499663363392     -1.16053775754879
  H   -10.37713680461987      0.91893505995926     -2.10933460425535
  H   -10.31477484065729     -0.50971971407466     -1.08270867642134
  H   -10.45193158921356      1.08831912093347     -0.33359216630742
  H   -6.12698253495657     -0.09533434929485     -0.26576416213799
  H   -4.68157285799967      1.79579695349858     -0.52175615875617
  H   -6.08144706269518      1.93022681979125     -1.59155762481325
  H   -5.60851768289776      3.44437508873917      1.04805649822209
  H   -7.15517023521159      3.43874267110950      0.20054699136191
  H   -4.48108868428878      4.35668487533659     -1.03173398494591
  H   -6.05895074860634      4.36717332245219     -1.85340338492509
  H   -5.31488095874102      5.90889655012392      0.69954902593149
  H   -6.95688161923950      5.90067673223621     -0.06783275019240
  H   -6.07583217120943      7.15333368200411     -1.87448621073417
