27
Coordinates from ORCA-job freq
  N   -4.52357783579033     -4.73250534567477     -0.79428268291183
  C   -3.08641887182579     -4.74169425143697     -0.90585160711081
  C   -2.52745123069171     -4.70816788443557      0.52151118815753
  O   -3.23499876189698     -4.95824896002049      1.47995873506128
  C   -2.56240838545315     -3.59510263657821     -1.79891860701684
  C   -2.72275477719070     -2.26220965374796     -1.17543951378699
  C   -1.63157068434343     -1.38117798908903     -0.83252883653710
  O   -0.40049921752993     -1.90401437298154     -1.10085507200886
  O   -1.75434805977890     -0.28056802028966     -0.34970744241721
  H   -4.87974080182525     -4.75773835010714      0.15118702655340
  H   -2.76819370028088     -5.68032432848997     -1.37281945083985
  C   -5.30574447161654     -5.11636518568054     -1.83757613828563
  N   -1.21989698626961     -4.41356466404017      0.64509483070686
  H   0.24167430249049     -1.22503011205383     -0.85225198765452
  H   -0.71357605921531     -4.05157803321885     -0.14596261419362
  O   -4.84496244163687     -5.33363085639616     -2.94214460743412
  C   -6.78242275016018     -5.23454574026544     -1.54620576822820
  H   -7.10471552574342     -6.23824106544493     -1.81880216431817
  H   -7.03031644877403     -5.04016515435918     -0.50464268224414
  H   -7.31721934588630     -4.53097072233958     -2.18304107141491
  C   -0.61841916731126     -4.32251939879722      1.96174195197333
  H   -0.76439451958035     -5.25713743080348      2.50051391528467
  H   0.44585366090016     -4.13425535704541      1.84756032025166
  H   -1.07229794252340     -3.51903470651213      2.54364590586814
  H   -1.52144263770306     -3.77598184581944     -2.06498706046947
  H   -3.14165488496740     -3.65538612729913     -2.72447430112630
  H   -3.70741445539575     -1.89290880707300     -0.92586926585826
