27
Coordinates from ORCA-job opt
  N   -4.44547496410183     -4.71818219106344     -0.76565837396940
  C   -2.99577372884559     -4.71564886201746     -0.80038494524941
  C   -2.51181314090164     -4.68495494213252      0.66626374859390
  O   -3.28628502818628     -4.45362213320408      1.59641834875662
  C   -2.42385155993424     -3.52475895148846     -1.62673308546745
  C   -2.77821918560258     -2.18283197963688     -1.07685818616558
  C   -1.94838550085939     -0.99555880115652     -1.19026924926512
  O   -0.73410134695439     -1.21612202691921     -1.79019196273678
  O   -2.27597305104227      0.11943550982015     -0.79598157360281
  H   -4.85438980794346     -4.56880106034030      0.14899095367756
  H   -2.64847536128637     -5.63720548023754     -1.28386905056813
  C   -5.19762119051838     -5.10273526453005     -1.84232096335393
  N   -1.18463423320034     -4.91323322313661      0.85317537659690
  H   -0.29322625041456     -0.35270505856254     -1.80992284382272
  H   -0.59995474821708     -5.08774668419936      0.05118672168019
  O   -4.68696358787967     -5.39379875832264     -2.92491806314519
  C   -6.70495216592775     -5.14494696215463     -1.61972649153707
  H   -7.04426501382271     -6.17724547428755     -1.74506925975020
  H   -7.00877919548467     -4.78353363080589     -0.63389914246285
  H   -7.18775617546045     -4.54205720220385     -2.39290149184298
  C   -0.57264157789530     -4.85626958752296      2.17941755363500
  H   -1.07938659209914     -5.54330992597758      2.86189571768405
  H   0.47676659761925     -5.14314783927148      2.09276460411369
  H   -0.63726723327847     -3.84730096699104      2.59781067710501
  H   -1.33929047107735     -3.61670791905213     -1.73892352056110
  H   -2.84711548447298     -3.63511908975066     -2.63747318037314
  H   -3.73908200221232     -2.02495849485472     -0.59796931796904
