26
Coordinates from ORCA-job freq
  N   -3.79267522453341     -0.03417084735107     -0.01418421823049
  C   -2.35580135750451     -0.21135338740101     -0.11883181329627
  C   -1.81946665295868     -0.22495015019681      1.32031123417633
  O   -2.53816994146118     -0.65749041169289      2.22248926557232
  C   -1.70036957139038      0.80924672421676     -1.06417735034834
  C   -1.72620936673693      2.22137623099996     -0.59537631789520
  H   -2.64357381679993      2.79396521367649     -0.64784214077229
  C   -0.48589941208601      2.93059093562713     -0.15348139396812
  O   0.50027104389100      2.17928735964049      0.14494606850569
  O   -0.52488535249849      4.16774213360995     -0.12266092573711
  H   -4.13483376957641      0.05341612949076      0.93178117594612
  C   -4.64274230281585     -0.40589246498100     -0.99011040426717
  N   -0.56989417595716      0.19724921765552      1.49889462500083
  H   -0.11021962263456      0.88048807447419      0.82343622250820
  O   -4.28183305333736     -0.81452091206500     -2.08153538527126
  C   -6.11598515100226     -0.26533701217045     -0.65948750629782
  H   -6.55921208797195      0.43273401741283     -1.36888323613177
  H   -6.59431271998601     -1.23394158715646     -0.80007559846744
  H   -6.29620038509195      0.08913911895716      0.35405125868471
  C   -0.04199794633212      0.23052299777552      2.84493200798030
  H   0.01966220146046     -0.77525301467078      3.26398184493862
  H   0.94956822697019      0.67605101587446      2.80299671006395
  H   -0.67658320208820      0.82682720101895      3.50526365720816
  H   -2.17016938540802     -1.21098190625033     -0.52980138560742
  H   -0.66128695700457      0.50999932882519     -1.21388929063518
  H   -2.21846207714660      0.70304701468144     -2.02149800365737
