26
Coordinates from ORCA-job opt
  N   -3.81443002684543     -0.00226981280108     -0.03997886686435
  C   -2.36286912983776     -0.16427544020329     -0.13659868721679
  C   -1.84369885176373     -0.18975989674867      1.32610165768178
  O   -2.60216844479241     -0.61009049424549      2.22350163150075
  C   -1.69281353636428      0.86127957029085     -1.09658452603004
  C   -1.67345060493643      2.29282069374139     -0.64184466726756
  H   -2.57269154761901      2.90047281424201     -0.72507785213247
  C   -0.41478303405525      2.96012737587635     -0.17425262898952
  O   0.54337859346335      2.17090085106764      0.17982129887480
  O   -0.39547017388758      4.21597949902346     -0.18837175570303
  H   -4.14022483660585      0.01894583144724      0.92011852187526
  C   -4.67666475279387     -0.42461335620226     -1.00413569237323
  N   -0.56766278788056      0.18681958024766      1.52726149142639
  H   -0.10231844908140      0.88710607861719      0.86913677660385
  O   -4.32553954886716     -0.82493611407894     -2.11832421209829
  C   -6.16056254504132     -0.34150993085544     -0.63320404457651
  H   -6.65252568778631      0.34028329694167     -1.33306042577032
  H   -6.60688771114676     -1.33166927644362     -0.76245071633859
  H   -6.33513236026968      0.00739710589900      0.38838328594969
  C   -0.04357971034676      0.19347501111916      2.88854416460109
  H   -0.01559617579417     -0.81981427334301      3.30328171069862
  H   0.96806130988356      0.60284999523774      2.85556416148283
  H   -0.65771254286504      0.80992532772080      3.55625901039051
  H   -2.15952840308075     -1.16482462258913     -0.54808411053203
  H   -0.66018237461447      0.53394758799959     -1.25464927264292
  H   -2.22622872707189      0.75922361804020     -2.05010715254795
