32
Coordinates from ORCA-job opt
  N   -1.82788983821481      0.77602375159250      0.76647142683143
  C   -1.49689941553847     -0.11508444331785     -0.33327756987625
  C   -1.65281977286505     -1.55759795831136      0.19122185366833
  O   -1.70962904458044     -1.80557451770009      1.39766914999090
  C   -0.07562782638614      0.13938025182229     -0.90761162552236
  C   1.07158305073112     -0.08965379799597      0.09026764281360
  C   2.44935809115648      0.22136894385705     -0.51854954048669
  C   3.59930845966355      0.02011146201556      0.47740683218458
  N   4.89363354238467      0.29617578482358     -0.11619268408642
  H   5.58975645938770      0.14581796044411      0.62666032780467
  H   -1.87112286330222      0.33986394906862      1.67863459320791
  C   -2.28582156542418      2.04781873314504      0.56031429382029
  N   -1.69015249255272     -2.51889396135642     -0.77613280629323
  H   -1.68311274045998     -2.22222393805474     -1.74023153034442
  O   -2.36865217165453      2.54544743183663     -0.56359557532803
  C   -2.67660307953915      2.82266081626812      1.81551283462476
  H   -2.05363619571814      3.71924413776332      1.87751438327471
  H   -3.71498907329174      3.14864736713753      1.71189960238045
  H   -2.56824669872067      2.24430917755570      2.73694376616835
  C   -1.80196234176746     -3.94381546965464     -0.48340453870499
  H   -2.75844659028239     -4.34543413261809     -0.83507329341178
  H   -0.98555781469006     -4.50167020811085     -0.95329401760464
  H   -1.74411169527072     -4.06631049763956      0.59818832745614
  H   -2.21721690377625      0.05896713976067     -1.14222314579455
  H   0.06807407411964     -0.50084343067987     -1.78803239981385
  H   -0.06082039143175      1.17396176531461     -1.26616734501980
  H   1.05643378940348     -1.12857237702738      0.44659019124653
  H   0.90967011168452      0.54223044149135      0.97248888286183
  H   2.63018425085104     -0.41863351730815     -1.39137652461749
  H   2.47649611795670      1.25677743636534     -0.87969965132787
  H   3.58562621013778     -1.01429616567550      0.87055494835005
  H   3.45015135799020      0.66276586518846      1.36544619154783
