33
Coordinates from ORCA-job freq
  N   -7.60658197699995      1.28854267855487     -0.05475732424627
  C   -6.18036762954891      1.14667214809246      0.18069436504096
  C   -6.06322437843298      0.54871487462637      1.59751072556813
  O   -7.04211225042797      0.46972604391889      2.31322837659266
  C   -5.37434449104626      2.44697530133426      0.04170928250240
  C   -5.97508320740753      3.63510251871019      0.81729338676203
  C   -5.48122280703146      4.94180018119169      0.30531153667927
  C   -6.28445744758562      5.72592444054275     -0.66285996508593
  N   -6.37425584327575      5.02245021336725     -2.00686768004661
  H   -5.86967691552785      6.71511218813853     -0.84128150138986
  H   -7.32098649558464      5.83007304571753     -0.33297097194241
  H   -6.91938907571376      5.56794691412587     -2.67601265791038
  H   -6.84951709293170      4.06792993575970     -1.90225946891781
  H   -8.17132423932961      0.82237470619536      0.64770841694636
  C   -8.21374431224344      2.00836811845313     -0.99268636423211
  N   -4.82997434421068      0.15850185477037      1.95778779719196
  H   -4.10054741334473      0.15797511161056      1.26400438159089
  O   -7.59912742618820      2.72379720919388     -1.80223433180911
  H   -5.44286014671177      4.88142443210157     -2.39874411374059
  C   -4.55596208725022     -0.44640359365061      3.25175040807165
  H   -4.53718980992857     -1.53403500139346      3.18190082639664
  H   -3.59861642720074     -0.09085595620574      3.62627135369081
  H   -5.34628494001363     -0.15143870910439      3.93607082374440
  C   -9.71242743364644      1.92468179197012     -1.04671738528170
  H   -10.12711871061010      2.92173117332905     -0.89995634678108
  H   -9.99453327012597      1.59541805951136     -2.04631126042810
  H   -10.12942143190815      1.24355427212416     -0.30954615007796
  H   -5.77158191230976      0.42283763182827     -0.53166724418321
  H   -4.35868612059321      2.26232975905301      0.39453530121856
  H   -5.29645511178430      2.67929803260356     -1.01834932847126
  H   -5.73665052949455      3.52592851821240      1.87799964408408
  H   -7.06467144520727      3.60413224347477      0.73782988963924
  H   -4.51933327638375      5.32630986184208      0.61382057882436
