33
Coordinates from ORCA-job freq
  N   -7.88557367192611      0.94974124576696      0.05417020083692
  C   -6.45707944945510      0.83386899374530      0.20833871077742
  C   -6.14782336479939      0.84808266585083      1.70408523917763
  O   -6.93368050393027      1.32773207143658      2.50031959300682
  C   -5.71102271509218      1.97731613306368     -0.49976794178893
  C   -6.02848505712838      3.34367157098759      0.09487332553653
  C   -5.49493597898433      4.46533679471754     -0.79989909818717
  C   -5.79092737085443      5.79563526735749     -0.23763413850611
  N   -5.57921476585520      6.96618854570293     -1.11406080120759
  H   -6.05255584567866      7.79960702065967     -0.75310555266038
  H   -5.94682752372511      6.77814934822525     -2.05313416298781
  H   -8.41886693643752      1.09500335002885      0.89906631009684
  C   -8.48176790495526      0.66624556410404     -1.13531750425817
  N   -4.93385380279770      0.36544527391111      2.03733810428410
  H   -4.41051164214549     -0.12374008830107      1.32970804460153
  O   -7.82631524341823      0.41354776362311     -2.12832423665918
  H   -4.58341346402965      7.20244804828514     -1.22574249415750
  C   -4.46880866314225      0.29758280846685      3.41142183731305
  H   -4.53531591026523     -0.71876115097214      3.79970266256904
  H   -3.43666924163188      0.63808610239286      3.47452742183087
  H   -5.10267625777432      0.94468112720759      4.01117094192640
  C   -9.98978397068452      0.68266907330709     -1.14437772680685
  H   -10.32629192286375      1.27875662501134     -1.99052497398685
  H   -10.34058064913187     -0.33721723646227     -1.30181739363415
  H   -10.41928678876974      1.06991424610527     -0.22238926293033
  H   -6.12554275773485     -0.10624633488498     -0.24164792802796
  H   -4.63525318207221      1.78871593584050     -0.45254292721825
  H   -6.00687038950036      1.93689559279410     -1.54976645993552
  H   -5.59683275880987      3.43623990062737      1.09524626562387
  H   -7.10962493816203      3.45315084419136      0.20399260474784
  H   -4.40800443604512      4.34446595512027     -0.93329123878425
  H   -5.93277638370327      4.37781902271526     -1.80239194855424
  H   -5.78508955849936      6.04092784937438      0.81420785796236
