33
Coordinates from ORCA-job opt
  N   -7.82234010746748      0.94635137659382      0.09332389552275
  C   -6.37480968895630      0.87662040541699      0.22906508450129
  C   -6.06040144510929      0.85878204369351      1.73698226700201
  O   -6.74853247385643      1.51182614615243      2.52604511727457
  C   -5.64863901024260      2.05534398700373     -0.48007019850012
  C   -6.06442939377273      3.44341787338855      0.03492246932204
  C   -5.47785951202763      4.56963939082493     -0.84861641521093
  C   -5.86590862702048      5.91730818337938     -0.35355207956925
  N   -5.63597529781962      7.08659002770220     -1.25278277501807
  H   -6.15958415651466      7.91095357763700     -0.93763606279341
  H   -5.94111515173340      6.86924622184472     -2.20952721415476
  H   -8.34331198392654      1.14653077948293      0.93651290218522
  C   -8.45342325987477      0.65768577713079     -1.09018089697974
  N   -4.96804061772856      0.13256457053633      2.09802232335439
  H   -4.54087024213875     -0.45787623438163      1.39943911540114
  O   -7.81778026537389      0.41351311237450     -2.11617050653803
  H   -4.64132124815141      7.35498912407338     -1.30860413329921
  C   -4.52158658165822     -0.00311005023214      3.48453925235407
  H   -4.74373126350031     -1.00259223311067      3.87187016700730
  H   -3.44549163481007      0.17784402609731      3.55635431270272
  H   -5.05569735883812      0.73287304155632      4.08512332170639
  C   -9.97582618689309      0.65406347052993     -1.05329867057723
  H   -10.34993279459464      1.32504402236137     -1.83083645186061
  H   -10.32097976177067     -0.35417991803161     -1.29920984586148
  H   -10.39114246150265      0.94660655484776     -0.08545458207031
  H   -6.02489062455531     -0.04408666435084     -0.25214306385732
  H   -4.56548170610655      1.91962526803761     -0.36829359619753
  H   -5.88341359928435      1.96334075570917     -1.54546344474953
  H   -5.73928098041227      3.58392457413151      1.07104267856167
  H   -7.15598480580597      3.52098264436628      0.03076535879921
  H   -4.37490839275846      4.48322990008464     -0.86721290093254
  H   -5.80731926627745      4.43987992138688     -1.89113833253882
  H   -5.98225314952109      6.19502825376283      0.68861623501411
