27
Coordinates from ORCA-job freq
  N   1.53323735700892      1.08610684307618      0.07299244328360
  C   0.81566980814082     -0.06556404775176      0.26564522422240
  C   1.61495831114211     -1.25512132682029     -0.02594185320533
  O   2.79811557474240     -1.15395251150090     -0.35164029095483
  C   -0.60267149556448     -0.07355292713069      0.71950305566058
  H   -0.81003010619458     -0.99754237367644      1.26096535906434
  H   -0.77079530278611      0.73628203866710      1.42720383157203
  C   -1.59993554920460      0.06955409649916     -0.43112555698540
  H   -1.54532529875277      1.07090181433357     -0.85919027168284
  H   -1.38426217682776     -0.63531228628436     -1.23967205985256
  C   -3.01136877422496     -0.18690529254716      0.02012047300597
  O   -3.89919041218041      0.06253805056179     -0.95717570435757
  O   -3.33955763528520     -0.58339569255433      1.10371153516974
  H   2.50286411584600      0.89466652355712     -0.16080276564674
  C   1.09091663286362      2.38678364431622      0.07620296042618
  N   1.00706953352284     -2.46607744011670      0.05738334930678
  H   -4.77897707565128     -0.12937358981778     -0.60128197595475
  H   0.05232768290740     -2.53312657756715      0.35727090395982
  O   -0.07407724776112      2.68885364244844      0.23112026712779
  C   2.16800355998432      3.42287205475217     -0.13012426443338
  H   1.89241439615153      4.04022052555116     -0.98411920194218
  H   2.19496862435624      4.06719437693631      0.74816595656031
  H   3.15467764641243      2.99380245247346     -0.29216939890612
  C   1.75576356934526     -3.67327607794297     -0.21960353013027
  H   2.54660402880487     -3.82292653277317      0.51689642218631
  H   1.07626816967020     -4.52170613441881     -0.19589188935232
  H   2.22000906353530     -3.60856125227017     -1.20323701813757
