27
Coordinates from ORCA-job opt
  N   1.48518661467453      1.11264472824907     -0.00951251994072
  C   0.78167746255953     -0.05890349329168      0.20747048955940
  C   1.62607593719107     -1.24022560535458     -0.06776492816107
  O   2.81079669920422     -1.09382703676929     -0.42764749194796
  C   -0.65031359070533     -0.08370649998983      0.66453874857306
  H   -0.86769619761122     -1.03266238033443      1.16221764154724
  H   -0.80946015549957      0.69954884442323      1.40902174570550
  C   -1.67150264969466      0.11911316255334     -0.47940229258718
  H   -1.65932709009254      1.15498305918401     -0.82586547735976
  H   -1.42922017885621     -0.51396775698038     -1.34289461953894
  C   -3.08169289566363     -0.24859135329082     -0.05112036603954
  O   -4.01539334393710      0.24554583571341     -0.90494720234313
  O   -3.37818280909308     -0.92424926998558      0.91550136662540
  H   2.44687129173831      0.90979477930984     -0.28121054745609
  C   1.07495852443166      2.43239090566827      0.07015607173003
  N   1.04653961643301     -2.48036709111516      0.05842636165199
  H   -4.87737727652835     -0.05376998425179     -0.57202104941808
  H   0.13612561577955     -2.54390535342795      0.48497136658658
  O   -0.07824796212912      2.76829483266050      0.33408427155731
  C   2.17363569956993      3.45651455770463     -0.18671148231954
  H   1.83146855413611      4.14671871912361     -0.96230257095177
  H   2.32389759435480      4.03781995953210      0.72814396108872
  H   3.12605343258143      3.01369174412683     -0.48826218552470
  C   1.82780141319988     -3.70409991135260     -0.07509617137078
  H   2.25932964535197     -4.02275741597501      0.88239396408772
  H   1.19159254123277     -4.50382318273400     -0.46337629336360
  H   2.64407950737204     -3.51881979339572     -0.77358379039010
