32
Coordinates from ORCA-job freq
  N   -1.86735352624482      0.78465230208680      0.76663327705605
  C   -1.54256957256469     -0.09503016017020     -0.32805125178294
  C   -1.64685569132561     -1.52683191311741      0.19552412234614
  O   -1.77543212042173     -1.76675460110836      1.38120575974504
  C   -0.14496032140766      0.18606395769653     -0.90255064272331
  C   0.98201526142584     -0.12747528274720      0.07148227959702
  C   2.34953113547708      0.23705134135929     -0.49336123711276
  C   3.48566697176119     -0.09453118249313      0.47668529244009
  N   4.79149025078526      0.16814802294202     -0.06802146109331
  H   -2.27925707246728      0.05622885048862     -1.12310054558286
  H   -0.12694277437875      1.23964241693240     -1.18834474606710
  H   -0.00994102138430     -0.39220772295910     -1.82128111598886
  H   0.96784619072466     -1.19273656093963      0.32456774233092
  H   0.81273119189517      0.41523126200071      1.00593461457067
  H   2.37804788454678      1.30527969379674     -0.73090670643144
  H   2.51936307686129     -0.29962022391892     -1.43126266413417
  H   3.43089729690649     -1.14470484567491      0.77199205346840
  H   3.35168461711481      0.50562200105625      1.38947908847985
  H   4.78108994984526      1.13761780410922     -0.40178917736280
  H   -1.94123935439725      0.35143233945717      1.67541922551574
  C   -2.25312783524638      2.06463725927484      0.54758458358775
  N   -1.54205780762021     -2.48485625342831     -0.75055501004379
  H   -1.48775215519433     -2.19763539651525     -1.71306019418373
  O   -2.28234072863573      2.54769839924831     -0.56886818374094
  C   -2.62660348734777      2.86013219855652      1.77586429946350
  H   -1.90722073523361      3.67029650240212      1.89247610994950
  H   -3.60589906291963      3.30698305547553      1.61346986769008
  H   -2.64219767072676      2.26094611929100      2.68454125865786
  C   -1.58503397680678     -3.89866818550075     -0.43969215288137
  H   -2.53523344553461     -4.34254805637127     -0.74010231873254
  H   -0.77191236449703     -4.42073694659714     -0.94246762943942
  H   -1.47136210298984     -4.00407619463347      0.63575846240172
