33
Coordinates from ORCA-job opt
  N   -7.69545155121469      0.91588042419071     -0.00203106196377
  C   -6.40781918064996      1.53782358310847     -0.28549639825627
  C   -5.64012364100345      1.89950490258610      1.00441896382784
  O   -4.83911389848170      2.86526358166744      1.05468142021438
  C   -6.47084012164686      2.71680219399925     -1.27799192500968
  C   -7.23335558595509      3.98664548370327     -0.75430625528488
  C   -6.56595260540277      5.27240449870120     -1.15067336720261
  C   -5.60908751454717      5.97205294597110     -0.23856113058807
  N   -4.30600589949452      5.17579357427626     -0.05410730355215
  H   -6.72148182442294      5.67962516620542     -2.14582681202446
  H   -6.01521748904565      6.07301537887048      0.77391445317036
  H   -5.33228818236405      6.96059612238893     -0.60906402900908
  H   -3.68417993634046      5.64195374253231      0.61152672203525
  H   -3.80748455164766      5.09097882992072     -0.94192865292715
  H   -8.44167184276229      1.49378563335174      0.36001181964203
  C   -8.05454870591046     -0.27215391756113     -0.64713936946033
  N   -5.82144279660963      1.08955338566502      2.05449017112154
  H   -6.48788693029164      0.33801476390145      1.94110854449605
  O   -7.23906614421227     -0.91223419542879     -1.29408671450461
  H   -4.52445326288933      4.19024017673710      0.32306525140634
  C   -5.08417898786863      1.21928928958471      3.31412256651479
  H   -5.43199832276613      2.08633931787969      3.88297992997539
  H   -5.24497513366042      0.31661711173814      3.90385855768150
  H   -4.01725394942958      1.33469607799547      3.11325877367753
  C   -9.49780103358228     -0.71247725217981     -0.46723883338441
  H   -9.98740527401810     -0.69697373788960     -1.44548174861033
  H   -9.50442295817581     -1.74724898734677     -0.11648641134418
  H   -10.06477170405091     -0.08892931711750      0.22885218507913
  H   -5.82249596597187      0.74079904180383     -0.76368988629691
  H   -5.44282143547256      2.97534913183133     -1.54773219819172
  H   -6.93917416569246      2.35717203289582     -2.19782113864361
  H   -7.30860146179482      3.94834448348747      0.33984806906374
  H   -8.25574294262370      3.97615153253013     -1.14675019165160
