33
Coordinates from ORCA-job opt
  N   -7.84912344373044      0.92440904679749      0.07824961898836
  C   -6.40174993227785      0.87218503840088      0.21996535629937
  C   -6.09191363824546      0.89020460904377      1.73009720609698
  O   -6.81593968384491      1.51369239468870      2.51012380151090
  C   -5.68736811900030      2.04273681196337     -0.51351410549197
  C   -6.11109805424539      3.43700297023776     -0.02125705978043
  C   -5.56834930642137      4.54812460057124     -0.94781373005973
  C   -6.00339191696479      5.90041532127190     -0.50629129380036
  N   -5.50463782479963      7.07726837948894     -1.28006286124513
  H   -6.89091276016479      6.11984811211388      0.07740669046975
  H   -5.64062002111720      7.95184442182073     -0.76090727397089
  H   -5.97915307914791      7.17979828891309     -2.19036688387939
  H   -8.37380960453318      1.11389261559388      0.92186350684095
  C   -8.47346379340254      0.61029875244979     -1.10252455690871
  N   -4.96181732042348      0.22894691160472      2.10073850225234
  H   -4.50534402407713     -0.35014704483774      1.41120469313205
  O   -7.83355779638983      0.36594654857822     -2.12560042046525
  H   -4.50047886557755      6.98189165089020     -1.47472066508513
  C   -4.51436712780340      0.13122449548486      3.49054260921229
  H   -4.68421166105219     -0.87494699707428      3.88684040171816
  H   -3.44997143484045      0.37072294736351      3.56473015727060
  H   -5.09017619781891      0.84345279803119      4.08114640424547
  C   -9.99582607458262      0.57824883514373     -1.06555806743683
  H   -10.38252679869426      1.20835638677697     -1.87043807126436
  H   -10.32150744064269     -0.44614181568673     -1.26811194969852
  H   -10.41764075399839      0.90249208751477     -0.11065858589964
  H   -6.03931263489059     -0.05623969243300     -0.23701134301143
  H   -4.60275588143360      1.91803717137745     -0.40525207849352
  H   -5.92715810507985      1.92985414879425     -1.57578531744438
  H   -5.76336425671421      3.61087279423604      1.00178184075250
  H   -7.20468882367359      3.49328703296115     -0.00125181512752
  H   -4.46799009601715      4.50486026408151     -0.99550375250200
  H   -5.91902052839415      4.36196111383770     -1.98027695722454
