26
Coordinates from ORCA-job freq
  N   -3.88884223108125     -0.12464841891509      0.06071129475417
  C   -2.43211045033298     -0.11145123275022     -0.07798104238997
  C   -1.88083867593829     -0.20210479282842      1.36078115148341
  O   -2.58784538113689     -0.65770985631590      2.26216609663883
  C   -1.92519741714586      1.03958536964645     -0.88292491568541
  H   -1.70990957851588      0.85086462009003     -1.92463640244396
  C   -1.75429617829096      2.41526800886038     -0.35779261567306
  H   -2.29471845897424      3.14616514891726     -0.96239579781111
  H   -2.13186425541334      2.48770883819829      0.66778467959404
  C   -0.25267397991503      2.88330214209093     -0.33372881981491
  O   0.56942303421592      2.03188779604536      0.11605607636115
  O   -0.01997375177488      4.02165208074161     -0.73345576190212
  H   -4.21292453667261     -0.22652330432863      1.01289217441985
  C   -4.70794988798797     -0.37409007988185     -0.97705161254991
  N   -0.62363960098600      0.19297754306856      1.52312608884399
  H   -0.14197762968856      0.84752423392932      0.82291197664323
  O   -4.32343756030510     -0.52049972361048     -2.12510751043427
  C   -6.18488452762847     -0.44905845973986     -0.63612748861982
  H   -6.70490885973152      0.32246030077640     -1.20319044402587
  H   -6.56521897621490     -1.41632203283795     -0.96256497621883
  H   -6.38739373519884     -0.31443863302357      0.42513555774453
  C   -0.04707225541683      0.15509515793703      2.84718291884085
  H   0.02171404259138     -0.87016641508156      3.21622328051225
  H   0.94755645331089      0.59274195899395      2.79011931536293
  H   -0.65118697284547      0.72178517306211      3.56063817775840
  H   -2.13802662892125     -1.04095742304313     -0.57845240138833
