33
Coordinates from ORCA-job opt
  N   -7.61700679870657      1.39634143398739      0.27712437198241
  C   -6.20545138087595      1.03909564760675      0.32001029318735
  C   -5.93151622842907      0.60131435013052      1.78211127204266
  O   -6.67809419481106      0.96606575250367      2.69187087671286
  C   -5.23010426199468      2.17237602633258     -0.12395190821496
  C   -5.44286528892610      3.50499881665090      0.53247103868008
  C   -5.31710502387361      4.77272608173184     -0.27398939666747
  C   -6.61586696625362      5.02241191666727     -1.06735023998208
  N   -6.42165966236770      6.14192548212290     -2.10594023686354
  H   -4.48221428006641      4.67346646608616     -0.98648593020002
  H   -5.10203435408827      5.63022297525711      0.37471505912372
  H   -7.43176659492899      5.35247112602290     -0.42095066452148
  H   -6.93515997922817      4.13699356671558     -1.62503900186792
  H   -7.27967322727782      6.30175287336544     -2.64245023058186
  H   -5.68257993287537      5.88798990234353     -2.76843819038573
  H   -8.09115744736418      1.28541754510907      1.16706206581940
  C   -8.28736397078256      1.89714944607919     -0.79232793555199
  N   -4.82074731816463     -0.15887483737144      1.96366766169617
  H   -4.33496654911565     -0.50049494766487      1.14730045923920
  O   -7.72755355986075      2.20882133934140     -1.85673768720292
  H   -6.15177608111915      7.02540398748497     -1.66306377440969
  C   -4.40842880660242     -0.66652543191831      3.27403112155638
  H   -4.64814677315086     -1.72963832610015      3.37650837483820
  H   -3.33311542666947     -0.52470177637106      3.40899032189861
  H   -4.94747921267868     -0.10932390833383      4.03970265594372
  C   -9.79345962648166      2.03919451775772     -0.61402142458731
  H   -10.11566802098339      3.01024181364514     -0.99735784355842
  H   -10.28024618907873      1.27093565355968     -1.22309900126987
  H   -10.12255349400524      1.92379523382451      0.42136051052272
  H   -6.02509201862402      0.18804793588358     -0.35046657488401
  H   -4.20757704885963      1.81649933969546      0.08452788906819
  H   -5.31111247732188      2.26841258548571     -1.20983708693181
  H   -5.64748080443343      3.56891041236858      1.59701515536937
