27
Coordinates from ORCA-job freq
  N   -4.51932768561005     -4.85201640389010     -0.63782620604651
  C   -3.07555978700747     -4.96327173318092     -0.74293620716162
  C   -2.54989515140914     -4.85764722365351      0.70724973689557
  O   -3.25432404915671     -5.19516142354641      1.64263863267471
  C   -2.48846765762932     -3.97237662670983     -1.68634278500774
  H   -1.90445271065893     -4.32367997077238     -2.52242628423107
  C   -2.80798633734429     -2.52614125196261     -1.58839262787533
  H   -3.26007167033745     -2.14676530387319     -2.51003273637630
  H   -3.53847024353040     -2.33471824687165     -0.79545256855997
  C   -1.59856085393493     -1.66999521289707     -1.28563527466143
  O   -1.85319573779827     -0.36675472897607     -1.45947646360383
  O   -0.52615855204934     -2.07161692109210     -0.91679684256625
  H   -4.89243671009160     -4.99339834973659      0.29072809908732
  H   -2.80558413482463     -5.96846788347288     -1.08633152023737
  C   -5.31515948380321     -4.90158565305670     -1.73447160945331
  N   -1.28893149082015     -4.42483652023579      0.84793774858904
  H   -1.04792257684854      0.12066059621677     -1.23201315642820
  H   -0.83055483115159     -3.98377710185702      0.06222578870023
  O   -4.86481720132118     -4.91745680571580     -2.86396597483150
  C   -6.80237990447852     -4.91991689595473     -1.46654890760922
  H   -7.26666229334128     -4.12270804399908     -2.04440416063027
  H   -7.20225330338181     -5.86704858859835     -1.82764313075814
  H   -7.04939198743373     -4.80079626714654     -0.41339957691183
  C   -0.69801717657668     -4.30976341101091      2.16568857117407
  H   -0.80294753443128     -5.25282647043714      2.69943942852664
  H   0.35611922112200     -4.06937982259704      2.05527537685046
  H   -1.18874115615137     -3.53128673497221      2.75235065045187
