27
Coordinates from ORCA-job opt
  N   -4.53867471217357     -4.77487471484953     -0.64111428240123
  C   -3.08575219387020     -4.92233720185200     -0.76209787530052
  C   -2.55277098249038     -4.91597099304509      0.71131369417648
  O   -3.24082489341838     -5.40208516250392      1.61267493237838
  C   -2.45650199026028     -3.92287960695924     -1.68480664504015
  H   -1.77080059808901     -4.28230206260236     -2.44485597067471
  C   -2.77689616573396     -2.45942409160763     -1.65096444608859
  H   -3.18038410829926     -2.11308511835655     -2.61188718919325
  H   -3.54936728732009     -2.23641452065731     -0.90405906051262
  C   -1.56760131753698     -1.59128675830801     -1.31609007245561
  O   -1.76096233033772     -0.29315433778246     -1.64577501577930
  O   -0.53280167362328     -1.98027977003103     -0.80019830784702
  H   -4.89131586280379     -4.99850371065716      0.28320212950615
  H   -2.84752689826643     -5.92630385174711     -1.14458688004685
  C   -5.36404391719349     -4.90320307494559     -1.72984281568575
  N   -1.30882360160952     -4.41521596752757      0.89398670543124
  H   -0.95839833431776      0.18572045838646     -1.38056212104477
  H   -0.90397761477047     -3.84805907543204      0.15495415674752
  O   -4.93981952963728     -4.93254901333065     -2.88417888044231
  C   -6.85647832857057     -4.98103772839622     -1.41996748809411
  H   -7.37300826390828     -4.21404499724447     -2.00259354800734
  H   -7.22666454490817     -5.95472782459094     -1.75414150871552
  H   -7.08948633977168     -4.85113720623471     -0.36009333409760
  C   -0.69647458230427     -4.37665612011570      2.21929850422820
  H   -0.79782275292856     -5.35091422974973      2.70164857366458
  H   0.36211824252767     -4.13524505694874      2.10779944369690
  H   -1.17109041838422     -3.62676126291062      2.86237530159782
