32
Coordinates from ORCA-job opt
  N   1.79874943183764     -0.54424025188499      0.34504260697243
  C   1.08620170036322      0.34402268040718     -0.55726766023853
  C   0.78381927260634      1.63461298454644      0.23226867842874
  O   0.90238034848112      1.69063046524968      1.45866864947892
  C   -0.20840142972127     -0.29879759594770     -1.12897793241312
  C   -1.26281762796291     -0.59548044728291     -0.10386651542000
  C   -2.65003431404783     -0.99110810439935     -0.51549719079746
  C   -3.66993852986690     -0.92826983781105      0.63378610883747
  N   -5.01186643446623     -1.30404116195795      0.15395711057544
  H   -0.95078475747699     -0.77872462882932      0.92268253272472
  H   -2.64258153258931     -2.02147097953149     -0.92168380795448
  H   -3.00619478572633     -0.35722489732282     -1.33919881603911
  H   -3.72021422184884      0.10108114532119      1.00631493755284
  H   -3.30439535865205     -1.55441352417083      1.46608195501122
  H   -5.68087656101670     -1.22931565703077      0.91555716244537
  H   -5.00908143512496     -2.28302869807117     -0.12241368300835
  H   1.79747493500036     -0.26039997744001      1.31692443643342
  C   2.64112006388314     -1.51904807651267     -0.11311997085119
  N   0.36404416072126      2.69260059060511     -0.51429807572321
  H   0.32031402747954      2.59394461857543     -1.51612211878064
  O   2.77131444097957     -1.76735357063998     -1.31326866124377
  C   3.40269961103796     -2.29413241107520      0.95760932871769
  H   3.13356652626434     -3.35100132158303      0.87786351069539
  H   4.47285978251938     -2.20892188440681      0.75090442979891
  H   3.20036292081173     -1.94653368724738      1.97410286868052
  C   0.00168976793928      3.97159208258234      0.09061939969239
  H   0.88657825698646      4.50876997108794      0.44790994112971
  H   -0.51071038375196      4.58255130062513     -0.65508041604756
  H   -0.66380391524232      3.80656690859511      0.94094227276256
  H   1.74417962101139      0.57468096938757     -1.40388645780835
  H   -0.62016551649142      0.35387013081349     -1.91333939130815
  H   0.10980393606331     -1.21659713465219     -1.65017423230381
