27
Coordinates from ORCA-job opt
  N   -4.42999851468697     -4.61709005770203     -0.71848440512524
  C   -2.97842201491492     -4.65657253576361     -0.69034468202198
  C   -2.55099880536228     -4.64461611274576      0.79229297833039
  O   -3.31596188821261     -4.24670067604440      1.67370295530939
  C   -2.32980948880303     -3.48416367689793     -1.47658205338475
  C   -2.73185441701798     -2.09721104165262     -0.93932272239906
  C   -1.98697140230563     -0.97853310344478     -1.61852185864853
  O   -0.81902110782571     -1.07720884116905     -2.08983529677758
  O   -2.45161025844944      0.19380977034603     -1.76104842751015
  H   -4.87494460136190     -4.38844558285211      0.16156932537079
  H   -2.64704951454584     -5.58667757014770     -1.16746684143773
  C   -5.14750223013595     -5.08913915251869     -1.78657827190422
  N   -1.27412537407707     -5.05679832662206      1.02837562749885
  H   -0.74311747937159     -5.42685031203227      0.25419360631749
  O   -4.60190843373810     -5.48797488772612     -2.81514835433675
  C   -6.66378375218756     -5.06935847829848     -1.62809768968504
  H   -7.08149419713720     -4.37521223633126     -2.36303960797368
  H   -7.04810406321175     -6.06581373190735     -1.85984487857003
  H   -6.99425446788172     -4.77464869746959     -0.62860244954050
  C   -0.67975434427167     -5.09362994685764      2.36205961084770
  H   -0.53492077814737     -6.12509864212956      2.70079887007600
  H   0.28411423773359     -4.57603902279953      2.36603533169843
  H   -1.36236986540874     -4.59050902168986      3.04680323945363
  H   -1.24068971814431     -3.59121866497315     -1.44825844072722
  H   -2.63659307642013     -3.58360547701293     -2.52149181696349
  H   -2.51207783527237     -2.00711302822251      0.13305609197396
  H   -3.80418060884165     -1.91403494533499     -1.05643683987068
