32
Coordinates from ORCA-job opt
  N   -1.99071585381436      0.76515696087419      0.77208981437649
  C   -1.56088221105472     -0.04510771639718     -0.36712921557323
  C   -1.82990787618143     -1.52583147785571      0.04157785128045
  O   -2.49039172688424     -1.81384547761309      1.04119307684563
  C   -0.13094981372765      0.20278162622742     -0.78068032778602
  C   0.99180883476127      0.15644910129138      0.21389464883840
  C   2.36516295203432     -0.12557912105543     -0.42762292841387
  C   3.52137200954850     -0.04516492085347      0.57837675105687
  N   4.80126290824271     -0.37461263681092     -0.07582759102998
  H   0.77985754489593     -0.59174694873508      0.99106067984203
  H   1.04032541277800      1.12337198095745      0.74515162966526
  H   2.53866597935723      0.59942439754977     -1.23570915291986
  H   2.37198013520154     -1.11985847146772     -0.88923415541166
  H   3.35521779026927     -0.78048165176196      1.37537863513676
  H   3.51233164025466      0.95108656912964      1.05419296226366
  H   5.55068544554751     -0.36002286658431      0.61085782100170
  H   5.02877055954170      0.34898043940363     -0.75356391599508
  H   -2.41467155165438      0.23610758981863      1.52593722204776
  C   -2.20232401432943      2.11136469438167      0.65025826283293
  N   -1.31988225340327     -2.45017469994284     -0.81456768352707
  H   -0.68021230282235     -2.11559169974735     -1.52149303191196
  O   -1.90585923346037      2.73892019570525     -0.36693717760415
  C   -2.81428700434652      2.79671690668213      1.86972774127353
  H   -3.75172589062668      3.27046392432138      1.56571304460022
  H   -3.00587199920113      2.11510118357947      2.70246456961450
  H   -2.13562750221718      3.58801509572455      2.19949188591921
  C   -1.46556436948432     -3.88545105085319     -0.59682642560437
  H   -2.46093769573569     -4.08843040596117     -0.19851519882667
  H   -1.34540288739397     -4.40629608824057     -1.54937067727732
  H   -0.72547896726688     -4.26678238551866      0.11636297632410
  H   -2.21081981578601      0.17054985852831     -1.22640686807596
  H   0.04400975695894      0.68422809522478     -1.73973522296330
