32
Coordinates from ORCA-job opt
  N   -1.77560630079023      0.71062631294233      0.72161040072653
  C   -1.50124667782276     -0.16478363687501     -0.40393673680642
  C   -1.64332787143948     -1.61252875613272      0.10552470895130
  O   -1.60661851738355     -1.88725455264353      1.30762295411778
  C   -0.10049054870362      0.08129345258506     -1.03047313257777
  C   1.05716070269956     -0.18629708914144     -0.11373430428955
  C   2.45760257092449      0.15395328906165     -0.53104688890616
  C   3.45988273634720      0.16427627766704      0.63462996695842
  N   4.82700694273895      0.40704854743795      0.13669536643552
  H   2.46802115372372      1.13407482306388     -1.03383951786961
  H   2.82744165867286     -0.56463210978391     -1.28379008458307
  H   3.44866530995687     -0.81995507732548      1.11802654197035
  H   3.12375336592080      0.89766742221613      1.38663803241480
  H   5.47964729015369      0.39855256516612      0.91621492017800
  H   4.87808605872860      1.34328707531569     -0.25830683272719
  H   -1.74561762901798      0.27309496486682      1.63320019726889
  C   -2.15661921987866      2.01159919781662      0.55810757002652
  N   -1.78501075002762     -2.56257682645608     -0.85926779525066
  H   -1.81791643175497     -2.27469329758916     -1.82438861271418
  O   -2.25578995741430      2.53506263861079     -0.55372359334189
  C   -2.45046226517614      2.78346933606375      1.84069614119136
  H   -1.77072448766990      3.63840079250174      1.89443830281710
  H   -3.46978813826180      3.17451514156536      1.78325160227236
  H   -2.34381885051284      2.18081466648667      2.74653439046335
  C   -1.86992994325574     -3.98473594151738     -0.53656135107793
  H   -2.72070107782897     -4.18047042859200      0.12202159667205
  H   -1.99651992766053     -4.54737447738132     -1.46327176861959
  H   -0.96133832178135     -4.32438467492157     -0.03071217392075
  H   -2.25028235500153      0.02856843723136     -1.18086793803705
  H   -0.01839007511937     -0.53370200603672     -1.94585212657690
  H   -0.08407134727020      1.12198500152687     -1.38025010357461
  H   0.90630590390479     -0.80799806772948      0.76689026840898
