32
Coordinates from ORCA-job freq
  N   1.63449875239524     -0.83266829047146      0.38338123932004
  C   1.14157545831896      0.18208465384354     -0.51422217726178
  C   1.13952649465420      1.50233218799472      0.25542824577293
  O   1.33335656854260      1.54519037905206      1.45588696522301
  C   -0.26051043796678     -0.14896399096739     -1.05130083437334
  C   -1.34377902940204     -0.10257920357618      0.01697057536793
  C   -2.70881431144315     -0.51685336698399     -0.52261633658102
  C   -3.78035208433517     -0.41451815040230      0.50630908792410
  N   -5.03333475547752     -0.93502423555664      0.18521870158309
  H   -3.79788086215594      0.45425964791403      1.15364988575036
  H   -5.70313779101520     -0.93783013240820      0.93922899013070
  H   -5.00951455470950     -1.82941829878932     -0.28453173852408
  H   1.73213864590825     -0.55896022046052      1.35011842395683
  C   2.13506309915113     -2.00189360795739     -0.08086501719063
  N   0.88199292303886      2.59690056765259     -0.49327674797894
  H   0.71254430630917      2.47123882476287     -1.47682434156579
  O   2.12730063203050     -2.28727033461583     -1.26422398146260
  C   2.71066028399905     -2.93093383663793      0.96207062058515
  H   2.27190892742417     -3.91768339444260      0.82592704782151
  H   3.78299814698378     -3.01800554802455      0.78856031370877
  H   2.53683157687012     -2.58917221119084      1.98076106861705
  C   0.77394789714220      3.92256445225082      0.08002930366168
  H   1.34620617739047      4.63616784913582     -0.51121050490454
  H   -0.26504727873268      4.25167499621773      0.13357576237942
  H   1.18130070826375      3.88035252264008      1.08641928001828
  H   1.82847294234092      0.25695548619274     -1.36269995578258
  H   -0.50852079195017      0.54367122007727     -1.86184165847584
  H   -0.19826359476820     -1.14287135880843     -1.49890886122153
  H   -1.41512432798440      0.91034231694517      0.42834509288312
  H   -1.06924969662331     -0.75518442956419      0.84980987170850
  H   -2.95331933566613      0.10082385608470     -1.40206640290645
  H   -2.65396659765716     -1.54789908261739     -0.89417712613539
