33
Coordinates from ORCA-job freq
  N   -7.72738441569150      1.47980152062830      0.35335438727950
  C   -6.31850331024712      1.60712035428833      0.71361798207831
  C   -5.98042861670322      0.34575710060769      1.53162986867036
  O   -6.84845402610052     -0.45915000291689      1.80095742332412
  C   -6.02874754001771      2.84995869375374      1.50339931443749
  C   -6.17005289613787      4.20291616963179      0.89446061277067
  C   -5.19521608523351      4.47817046191421     -0.26151515044453
  C   -5.66229552922019      5.62669907674958     -1.14253722367968
  N   -6.68899188801160      5.13506982676108     -2.13080259112537
  H   -6.02955927235414      4.96571601160753      1.66163386761383
  H   -7.20251854676128      4.32268176500975      0.53696233440710
  H   -5.06728523168903      3.58777340086822     -0.88154722195140
  H   -4.21310556722119      4.72680714306826      0.14102311166621
  H   -4.85083037957570      6.07216898978027     -1.71331050247611
  H   -6.13519876837000      6.40946752242531     -0.55113570848543
  H   -7.34484917263991      5.86512580382543     -2.40403464688510
  H   -7.21799976723286      4.28504020295039     -1.76170195873555
  H   -8.21992139747368      0.76118239229215      0.87526002135485
  C   -8.27606210936062      2.05137012188076     -0.71064680197611
  N   -4.69824641976205      0.24633239297596      1.91386516762909
  H   -4.06198204056302      0.98228007947064      1.65276409053872
  O   -7.62498246888698      2.81820131312906     -1.44463022806656
  H   -6.23447311115580      4.80127723591864     -2.98144545223714
  C   -4.20138773496964     -0.86100441103156      2.71457015476583
  H   -5.03958273492299     -1.51749495742169      2.92976097950552
  H   -3.43960183002407     -1.41625811019446      2.16928932425605
  H   -3.78231381905783     -0.49492228309861      3.65083151390095
  C   -9.71035073353816      1.73207480237769     -1.00968380949644
  H   -10.28458428052451      2.65838295463436     -1.00662878841154
  H   -9.76545297078670      1.31192584791183     -2.01325600802031
  H   -10.14445433796837      1.03536576088672     -0.29724274919983
  H   -5.74231274595010      1.59281669705976     -0.21739569140937
  H   -6.03143825184761      2.76202712225558      2.58222237840184
