33
Coordinates from ORCA-job opt
  N   -7.83816628012488      1.49981008950797      0.36968725038023
  C   -6.41837520945991      1.69140517813298      0.70470889336936
  C   -6.00304777713282      0.37974817343438      1.44019945250286
  O   -6.83614557601354     -0.50194524339652      1.64577683546234
  C   -6.16513348674309      2.91276515309083      1.56090299619906
  C   -6.18062036436235      4.30287138399984      0.98454526148322
  C   -5.08800087006668      4.59024491197049     -0.08925847411526
  C   -5.54541765568707      5.58711674128399     -1.16298142731740
  N   -6.41280415438410      4.89145016715435     -2.19879827470853
  H   -6.07989855163461      5.03321981082330      1.79278257927324
  H   -7.17341051577275      4.47714804010490      0.54089822833895
  H   -4.76018389322700      3.66670502015157     -0.58175528742505
  H   -4.19803568600148      5.00135500839647      0.39578075179575
  H   -4.70557037974373      6.03764586498277     -1.69617709607623
  H   -6.14961743257545      6.38834310688394     -0.73138547491293
  H   -6.98988816495889      5.55700062277745     -2.71682919350582
  H   -7.05309932813451      4.14780846900257     -1.76527746982076
  H   -8.23428277021796      0.68143994130614      0.83158757447938
  C   -8.49617818571884      2.10110183462104     -0.63378919990719
  N   -4.70282883057070      0.31723511036507      1.81279711746519
  H   -4.12055457146986      1.12394339507882      1.64065112691559
  O   -7.98480706246898      3.00882375090135     -1.33519397574432
  H   -5.83015349104311      4.40349867566787     -2.88225022007214
  C   -4.12614949470593     -0.82291124376687      2.52974384292627
  H   -4.90313710657149     -1.57769028901606      2.64607938410729
  H   -3.29295272518808     -1.24759464242580      1.96299959666787
  H   -3.77251835919334     -0.51658098205995      3.51855816815439
  C   -9.91381796790513      1.64225786806059     -0.90369574160623
  H   -10.58444250367478      2.50200213952802     -0.81925703051643
  H   -9.97089597000016      1.28000165696422     -1.93420029284636
  H   -10.24675236162336      0.85546901019981     -0.22475994693973
  H   -5.85802676311044      1.75454914312613     -0.23736843282286
  H   -6.30365451051465      2.79644313314821      2.63336647881624
