33
Coordinates from ORCA-job freq
  N   -7.91068165215208      0.93281102161754      0.03031186402453
  C   -6.48861642660617      0.86992600637984      0.17834407735756
  C   -6.16807127784487      0.88181225731670      1.67079648714866
  O   -6.95452429646160      1.36220432543217      2.46545486748609
  C   -5.76590847217949      2.04922611898363     -0.52918421795024
  C   -6.09266879139150      3.38780585372836      0.13138307372156
  C   -5.59302995247460      4.48659513794814     -0.79103057238093
  C   -5.92628875453081      5.91541845994773     -0.08669634823854
  N   -5.53338009738745      6.92193663662315     -0.95534406357555
  H   -6.14836594629841      7.25163043017417     -1.69186366668527
  H   -8.44623407509575      1.07629749482966      0.87538263607718
  C   -8.50471689130015      0.63435218413144     -1.16457351379831
  N   -4.95247082996514      0.40651313079405      1.99927678970805
  H   -4.42697895170284     -0.08391898755092      1.29376305070744
  O   -7.83629514865770      0.42082828065489     -2.15529791298710
  H   -4.57181526888536      7.24320828238020     -0.99107607433701
  C   -4.48493218659882      0.35162295050622      3.37421058247685
  H   -4.65218455419658     -0.63358049275273      3.80995419357056
  H   -3.42245854932665      0.58412881104158      3.40928530511471
  H   -5.03931620236215      1.08762249313252      3.94984902438393
  C   -10.00864499657684      0.56870955767606     -1.15863695333520
  H   -10.38214921028508      0.97982619566358     -2.09334458210105
  H   -10.30209101866754     -0.48099848022375     -1.11542351220360
  H   -10.45273266481455      1.09009039806612     -0.31281397680016
  H   -6.11749259313978     -0.03959013495359     -0.30495184763484
  H   -4.68909161625317      1.87082021224519     -0.51292564519634
  H   -6.09753575068201      2.02520516338207     -1.56844493336744
  H   -5.61980051303772      3.46293713408406      1.11258568925957
  H   -7.17203747506129      3.46896454509063      0.27571322855287
  H   -4.51496031808509      4.45008896220915     -0.94498980669985
  H   -6.09814622439880      4.46955336943637     -1.75610759998823
  H   -5.35282776227573      5.94048818007030      0.83802695029650
  H   -7.00061653130302      5.93543350193737      0.08360240739357
