33
Coordinates from ORCA-job opt
  N   -7.87046088776681      0.82652286760272      0.03505214868542
  C   -6.44047999027164      0.87275011162086      0.14597069732819
  C   -6.11165061960740      0.86528945628146      1.65545313953099
  O   -6.90542595007098      1.35893188285710      2.45702678930813
  C   -5.78151392884338      2.13251378665973     -0.55326846173269
  C   -6.22660972207659      3.48128986043776      0.01960523816952
  C   -5.62821958539155      4.62270700986539     -0.83010446495782
  C   -6.12703119154137      6.02156294475481     -0.28641779846538
  N   -5.61046680238417      7.10775686826291     -1.06022691324145
  H   -8.38545271825139      1.08606018083099      0.87243573986262
  C   -8.51969560612397      0.48207143549906     -1.14206767831629
  N   -4.91101004747552      0.32943196722907      1.98951617896990
  H   -4.38348494153491     -0.14523376526003      1.27006341144418
  O   -7.86532649370430      0.24171991001821     -2.15345082621437
  C   -4.46512239971482      0.18744134572680      3.37841603526662
  H   -4.66480704344546     -0.82144416035745      3.75361935975932
  H   -3.39294589908069      0.38804717275569      3.43834595528515
  H   -5.01105229479986      0.90533424622210      3.99013429231071
  C   -10.03366149268583      0.41636461191740     -1.08728247895253
  H   -10.33610069943702     -0.62149442117290     -1.25646137757229
  H   -10.44942911212485      0.75761186264461     -0.13659006266406
  H   -10.44259448007662      1.01335753248586     -1.90599123747730
  H   -6.02739583390275      0.00670590293325     -0.38506807893586
  H   -4.69456389459176      2.02061113755579     -0.47788019479421
  H   -6.04962781596253      2.04174622651306     -1.61144706120913
  H   -5.90867200569502      3.59295294305140      1.06150074350223
  H   -7.32036442377406      3.54804872744673      0.00943631068479
  H   -4.53398867991199      4.60760696736544     -0.79147795955854
  H   -5.92983170418595      4.52557956088574     -1.87828782777874
  H   -5.79777966858881      6.13003897451742      0.75135216346308
  H   -7.21960424774712      6.04547929250870     -0.32271783265543
  H   -6.03660596925438      7.34706746942352     -1.94752019676523
  H   -4.64850732997421      7.40257783091769     -0.94192860227952
