26
Coordinates from ORCA-job freq
  N   -3.75725389684542     -0.11385556729811      0.13042139508557
  C   -2.42201372403763      0.22079041386342      0.16386099856783
  C   -1.82346961212920     -0.18469625798066      1.44238747725192
  O   -2.48952549412251     -0.85380772181922      2.25425645906589
  C   -1.70006638098565      0.83595954022778     -0.98441473612924
  H   -0.66234246844634      0.50014423978921     -0.95067117786601
  H   -2.15564465049956      0.46590147995341     -1.90206718913298
  C   -1.69304822773452      2.37448878249448     -1.01272016005134
  H   -1.58218875091481      2.70878636970450     -2.04663276639325
  H   -2.64871547327053      2.77527748779171     -0.67195821880830
  C   -0.55746198692543      3.07093672921244     -0.21678904395890
  O   0.30243765446091      2.32458005860995      0.33883148241669
  O   -0.58187774452277      4.30295147135248     -0.22813560542971
  H   -4.01664079597760     -0.60673707868535      0.98130842781727
  C   -4.71638735151850      0.13176175213098     -0.80433188027971
  N   -0.55965041738873      0.20460922575406      1.65837809761022
  H   -0.17479422613071      1.00209340398256      1.07773525759306
  O   -4.53948880998399      0.75318566804997     -1.83546764602028
  C   -6.08071373673245     -0.43638482222209     -0.46188736878599
  H   -6.78513359906045      0.39040308983598     -0.36937051747547
  H   -6.40973818686866     -1.05829274701830     -1.29405180810866
  H   -6.08986327739409     -1.02283364289781      0.45546027450077
  C   0.02851877124662     -0.04655971907119      2.95002639364578
  H   0.06176284494933     -1.11717786653893      3.16042878335967
  H   1.03903921748025      0.35681521192028      2.95094276857389
  H   -0.54584367664747      0.42581249885844      3.75302530295123
